<?xml version="1.0" encoding="UTF-8"?>
<routes>
  <vType id="CarA" accel="2.6" decel="4.5" sigma="0.5" length="5.0" minGap="1.5" maxSpeed="70" probability=".25" speedDev="0.1"  >
    <param key="has.ssm.device" value="true"/>
    <param key="device.ssm.measures" value="TTC DRAC PET BR SGAP TGAP"/>
    <param key="device.ssm.thresholds" value="3.0 3.0 2.0 0.0 0.2 0.5"/> 
    <param key="device.ssm.range" value="50.0" />
    <param key="device.ssm.extratime" value="5.0" />
    <param key="device.ssm.file" value="ssm_CarA.xml" />
    <param key="device.ssm.trajectories" value="true" />
    <param key="device.ssm.geo" value="false" />
    <param key="device.ssm.write-positions" value="false" />
    <param key="device.ssm.write-lane-positions" value="false" />
  </vType> 
  <vType id="CarB" accel="3.0" decel="4.5" sigma="0.5" length="4.5" minGap="1.5" maxSpeed="50" probability=".25" speedDev="0.1"  >
    <param key="has.ssm.device" value="true"/>
    <param key="device.ssm.measures" value="TTC DRAC PET BR SGAP TGAP"/>
    <param key="device.ssm.thresholds" value="3.0 3.0 2.0 0.0 0.2 0.5"/> 
    <param key="device.ssm.range" value="50.0" />
    <param key="device.ssm.extratime" value="5.0" />
    <param key="device.ssm.file" value="ssm_CarB.xml" />
    <param key="device.ssm.trajectories" value="true" />
    <param key="device.ssm.geo" value="false" />
    <param key="device.ssm.write-positions" value="false" />
    <param key="device.ssm.write-lane-positions" value="false" />
  </vType> 
  <vType id="CarC" accel="2.7" decel="4.5" sigma="0.5" length="6.0" minGap="1.5" maxSpeed="70" probability=".25" speedDev="0.1"  >
    <param key="has.ssm.device" value="true"/>
    <param key="device.ssm.measures" value="TTC DRAC PET BR SGAP TGAP"/>
    <param key="device.ssm.thresholds" value="3.0 3.0 2.0 0.0 0.2 0.5"/> 
    <param key="device.ssm.range" value="50.0" />
    <param key="device.ssm.extratime" value="5.0" />
    <param key="device.ssm.file" value="ssm_CarC.xml" />
    <param key="device.ssm.trajectories" value="true" />
    <param key="device.ssm.geo" value="false" />
    <param key="device.ssm.write-positions" value="false" />
    <param key="device.ssm.write-lane-positions" value="false" />
  </vType> 
  <vType id="CarD" accel="2.4" decel="4.5" sigma="0.5" length="5.5" minGap="1.5" maxSpeed="30" probability=".25" speedDev="0.1"  >
    <param key="has.ssm.device" value="true"/>
    <param key="device.ssm.measures" value="TTC DRAC PET BR SGAP TGAP"/>
    <param key="device.ssm.thresholds" value="3.0 3.0 2.0 0.0 0.2 0.5"/> 
    <param key="device.ssm.range" value="50.0" />
    <param key="device.ssm.extratime" value="5.0" />
    <param key="device.ssm.file" value="ssm_CarD.xml" />
    <param key="device.ssm.trajectories" value="true" />
    <param key="device.ssm.geo" value="false" />
    <param key="device.ssm.write-positions" value="false" />
    <param key="device.ssm.write-lane-positions" value="false" />
  </vType> 

  <route id="route01" edges="D2 L2 L12 L10 L7 D7"/>
  <route id="route02" edges="D2 L2 L12 L15 L18 L5 D5"/>
  <route id="route03" edges="D2 L2 L12 L15 L13 L3 D3"/>
  <route id="route04" edges="D4 L4 L14 L18 L5 D5"/>
  <route id="route05" edges="D4 L4 L14 L16 L10 L7 D7"/>
  <route id="route06" edges="D4 L4 L14 L16 L11 L1 D1"/>
  <route id="route07" edges="D6 L6 L17 L13 L3 D3"/>
  <route id="route08" edges="D6 L6 L17 L16 L11 L1 D1"/>
  <route id="route09" edges="D6 L6 L17 L16 L10 L7 D7"/>
  <route id="route10" edges="D8 L8 L9 L11 L1 D1"/>
  <route id="route11" edges="D8 L8 L9 L15 L13 L3 D3"/>
  <route id="route12" edges="D8 L8 L9 L15 L18 L5 D5"/>

  <vehicle color="1,0,0" depart="0" id="0-veh0" route="route01" type="CarA"/>
  <vehicle depart="0" id="0-veh1" route="route02" type="CarA"/>
  <vehicle depart="0" id="0-veh2" route="route03" type="CarA"/>
  <vehicle depart="0" id="0-veh3" route="route04" type="CarA"/>
  <vehicle depart="0" id="0-veh4" route="route05" type="CarA"/>
  <vehicle depart="0" id="0-veh5" route="route06" type="CarA"/>
  <vehicle depart="0" id="0-veh6" route="route07" type="CarA"/>
  <vehicle depart="0" id="0-veh7" route="route08" type="CarA"/>
  <vehicle depart="0" id="0-veh8" route="route09" type="CarA"/>
  <vehicle depart="0" id="0-veh9" route="route10" type="CarA"/>
  <vehicle depart="0" id="0-veh10" route="route11" type="CarA"/>
  <vehicle depart="0" id="0-veh11" route="route12" type="CarA"/>
  <vehicle color="1,0,0" depart="0" id="0-veh12" route="route01" type="CarB"/>
  <vehicle depart="0" id="0-veh13" route="route02" type="CarB"/>
  <vehicle depart="0" id="0-veh14" route="route03" type="CarB"/>
  <vehicle depart="0" id="0-veh15" route="route04" type="CarB"/>
  <vehicle depart="0" id="0-veh16" route="route05" type="CarB"/>
  <vehicle depart="0" id="0-veh17" route="route06" type="CarB"/>
  <vehicle depart="0" id="0-veh18" route="route07" type="CarB"/>
  <vehicle depart="0" id="0-veh19" route="route08" type="CarB"/>
  <vehicle depart="0" id="0-veh20" route="route09" type="CarB"/>
  <vehicle depart="0" id="0-veh21" route="route10" type="CarB"/>
  <vehicle depart="0" id="0-veh22" route="route11" type="CarB"/>
  <vehicle depart="0" id="0-veh23" route="route12" type="CarB"/>
  <vehicle color="1,0,0" depart="0" id="0-veh24" route="route01" type="CarC"/>
  <vehicle depart="0" id="0-veh25" route="route02" type="CarC"/>
  <vehicle depart="0" id="0-veh26" route="route03" type="CarC"/>
  <vehicle depart="0" id="0-veh27" route="route04" type="CarC"/>
  <vehicle depart="0" id="0-veh28" route="route05" type="CarC"/>
  <vehicle depart="0" id="0-veh29" route="route06" type="CarC"/>
  <vehicle depart="0" id="0-veh30" route="route07" type="CarC"/>
  <vehicle depart="0" id="0-veh31" route="route08" type="CarC"/>
  <vehicle depart="0" id="0-veh32" route="route09" type="CarC"/>
  <vehicle depart="0" id="0-veh33" route="route10" type="CarC"/>
  <vehicle depart="0" id="0-veh34" route="route11" type="CarC"/>
  <vehicle depart="0" id="0-veh35" route="route12" type="CarC"/>
  <vehicle color="1,0,0" depart="0" id="0-veh36" route="route01" type="CarD"/>
  <vehicle depart="0" id="0-veh37" route="route02" type="CarD"/>
  <vehicle depart="0" id="0-veh38" route="route03" type="CarD"/>
  <vehicle depart="0" id="0-veh39" route="route04" type="CarD"/>
  <vehicle depart="0" id="0-veh40" route="route05" type="CarD"/>
  <vehicle depart="0" id="0-veh41" route="route06" type="CarD"/>
  <vehicle depart="0" id="0-veh42" route="route07" type="CarD"/>
  <vehicle depart="0" id="0-veh43" route="route08" type="CarD"/>
  <vehicle depart="0" id="0-veh44" route="route09" type="CarD"/>
  <vehicle depart="0" id="0-veh45" route="route10" type="CarD"/>
  <vehicle depart="0" id="0-veh46" route="route11" type="CarD"/>
  <vehicle depart="0" id="0-veh47" route="route12" type="CarD"/>
  <vehicle color="1,0,0" depart="0" id="0-veh48" route="route01" type="CarA"/>
  <vehicle depart="0" id="0-veh49" route="route02" type="CarA"/>
  <vehicle depart="0" id="0-veh50" route="route03" type="CarA"/>
  <vehicle depart="0" id="0-veh51" route="route04" type="CarA"/>
  <vehicle depart="0" id="0-veh52" route="route05" type="CarA"/>
  <vehicle depart="0" id="0-veh53" route="route06" type="CarA"/>
  <vehicle depart="0" id="0-veh54" route="route07" type="CarA"/>
  <vehicle depart="0" id="0-veh55" route="route08" type="CarA"/>
  <vehicle depart="0" id="0-veh56" route="route09" type="CarA"/>
  <vehicle depart="0" id="0-veh57" route="route10" type="CarA"/>
  <vehicle depart="0" id="0-veh58" route="route11" type="CarA"/>
  <vehicle depart="0" id="0-veh59" route="route12" type="CarA"/>
  <vehicle color="1,0,0" depart="0" id="0-veh60" route="route01" type="CarB"/>
  <vehicle depart="0" id="0-veh61" route="route02" type="CarB"/>
  <vehicle depart="0" id="0-veh62" route="route03" type="CarB"/>
  <vehicle depart="0" id="0-veh63" route="route04" type="CarB"/>
  <vehicle depart="0" id="0-veh64" route="route05" type="CarB"/>
  <vehicle depart="0" id="0-veh65" route="route06" type="CarB"/>
  <vehicle depart="0" id="0-veh66" route="route07" type="CarB"/>
  <vehicle depart="0" id="0-veh67" route="route08" type="CarB"/>
  <vehicle depart="0" id="0-veh68" route="route09" type="CarB"/>
  <vehicle depart="0" id="0-veh69" route="route10" type="CarB"/>
  <vehicle depart="0" id="0-veh70" route="route11" type="CarB"/>
  <vehicle depart="0" id="0-veh71" route="route12" type="CarB"/>
  <vehicle color="1,0,0" depart="0" id="0-veh72" route="route01" type="CarC"/>
  <vehicle depart="0" id="0-veh73" route="route02" type="CarC"/>
  <vehicle depart="0" id="0-veh74" route="route03" type="CarC"/>
  <vehicle depart="0" id="0-veh75" route="route04" type="CarC"/>
  <vehicle depart="0" id="0-veh76" route="route05" type="CarC"/>
  <vehicle depart="0" id="0-veh77" route="route06" type="CarC"/>
  <vehicle depart="0" id="0-veh78" route="route07" type="CarC"/>
  <vehicle depart="0" id="0-veh79" route="route08" type="CarC"/>
  <vehicle depart="0" id="0-veh80" route="route09" type="CarC"/>
  <vehicle depart="0" id="0-veh81" route="route10" type="CarC"/>
  <vehicle depart="0" id="0-veh82" route="route11" type="CarC"/>
  <vehicle depart="0" id="0-veh83" route="route12" type="CarC"/>
  <vehicle color="1,0,0" depart="0" id="0-veh84" route="route01" type="CarD"/>
  <vehicle depart="0" id="0-veh85" route="route02" type="CarD"/>
  <vehicle depart="0" id="0-veh86" route="route03" type="CarD"/>
  <vehicle depart="0" id="0-veh87" route="route04" type="CarD"/>
  <vehicle depart="0" id="0-veh88" route="route05" type="CarD"/>
  <vehicle depart="0" id="0-veh89" route="route06" type="CarD"/>
  <vehicle depart="0" id="0-veh90" route="route07" type="CarD"/>
  <vehicle depart="0" id="0-veh91" route="route08" type="CarD"/>
  <vehicle depart="0" id="0-veh92" route="route09" type="CarD"/>
  <vehicle depart="0" id="0-veh93" route="route10" type="CarD"/>
  <vehicle depart="0" id="0-veh94" route="route11" type="CarD"/>
  <vehicle depart="0" id="0-veh95" route="route12" type="CarD"/>
  <vehicle color="1,0,0" depart="30" id="30-veh0" route="route01" type="CarA"/>
  <vehicle depart="30" id="30-veh1" route="route02" type="CarA"/>
  <vehicle depart="30" id="30-veh2" route="route03" type="CarA"/>
  <vehicle depart="30" id="30-veh3" route="route04" type="CarA"/>
  <vehicle depart="30" id="30-veh4" route="route05" type="CarA"/>
  <vehicle depart="30" id="30-veh5" route="route06" type="CarA"/>
  <vehicle depart="30" id="30-veh6" route="route07" type="CarA"/>
  <vehicle depart="30" id="30-veh7" route="route08" type="CarA"/>
  <vehicle depart="30" id="30-veh8" route="route09" type="CarA"/>
  <vehicle depart="30" id="30-veh9" route="route10" type="CarA"/>
  <vehicle depart="30" id="30-veh10" route="route11" type="CarA"/>
  <vehicle depart="30" id="30-veh11" route="route12" type="CarA"/>
  <vehicle color="1,0,0" depart="30" id="30-veh12" route="route01" type="CarB"/>
  <vehicle depart="30" id="30-veh13" route="route02" type="CarB"/>
  <vehicle depart="30" id="30-veh14" route="route03" type="CarB"/>
  <vehicle depart="30" id="30-veh15" route="route04" type="CarB"/>
  <vehicle depart="30" id="30-veh16" route="route05" type="CarB"/>
  <vehicle depart="30" id="30-veh17" route="route06" type="CarB"/>
  <vehicle depart="30" id="30-veh18" route="route07" type="CarB"/>
  <vehicle depart="30" id="30-veh19" route="route08" type="CarB"/>
  <vehicle depart="30" id="30-veh20" route="route09" type="CarB"/>
  <vehicle depart="30" id="30-veh21" route="route10" type="CarB"/>
  <vehicle depart="30" id="30-veh22" route="route11" type="CarB"/>
  <vehicle depart="30" id="30-veh23" route="route12" type="CarB"/>
  <vehicle color="1,0,0" depart="30" id="30-veh24" route="route01" type="CarC"/>
  <vehicle depart="30" id="30-veh25" route="route02" type="CarC"/>
  <vehicle depart="30" id="30-veh26" route="route03" type="CarC"/>
  <vehicle depart="30" id="30-veh27" route="route04" type="CarC"/>
  <vehicle depart="30" id="30-veh28" route="route05" type="CarC"/>
  <vehicle depart="30" id="30-veh29" route="route06" type="CarC"/>
  <vehicle depart="30" id="30-veh30" route="route07" type="CarC"/>
  <vehicle depart="30" id="30-veh31" route="route08" type="CarC"/>
  <vehicle depart="30" id="30-veh32" route="route09" type="CarC"/>
  <vehicle depart="30" id="30-veh33" route="route10" type="CarC"/>
  <vehicle depart="30" id="30-veh34" route="route11" type="CarC"/>
  <vehicle depart="30" id="30-veh35" route="route12" type="CarC"/>
  <vehicle color="1,0,0" depart="30" id="30-veh36" route="route01" type="CarD"/>
  <vehicle depart="30" id="30-veh37" route="route02" type="CarD"/>
  <vehicle depart="30" id="30-veh38" route="route03" type="CarD"/>
  <vehicle depart="30" id="30-veh39" route="route04" type="CarD"/>
  <vehicle depart="30" id="30-veh40" route="route05" type="CarD"/>
  <vehicle depart="30" id="30-veh41" route="route06" type="CarD"/>
  <vehicle depart="30" id="30-veh42" route="route07" type="CarD"/>
  <vehicle depart="30" id="30-veh43" route="route08" type="CarD"/>
  <vehicle depart="30" id="30-veh44" route="route09" type="CarD"/>
  <vehicle depart="30" id="30-veh45" route="route10" type="CarD"/>
  <vehicle depart="30" id="30-veh46" route="route11" type="CarD"/>
  <vehicle depart="30" id="30-veh47" route="route12" type="CarD"/>
  <vehicle color="1,0,0" depart="30" id="30-veh48" route="route01" type="CarA"/>
  <vehicle depart="30" id="30-veh49" route="route02" type="CarA"/>
  <vehicle depart="30" id="30-veh50" route="route03" type="CarA"/>
  <vehicle depart="30" id="30-veh51" route="route04" type="CarA"/>
  <vehicle depart="30" id="30-veh52" route="route05" type="CarA"/>
  <vehicle depart="30" id="30-veh53" route="route06" type="CarA"/>
  <vehicle depart="30" id="30-veh54" route="route07" type="CarA"/>
  <vehicle depart="30" id="30-veh55" route="route08" type="CarA"/>
  <vehicle depart="30" id="30-veh56" route="route09" type="CarA"/>
  <vehicle depart="30" id="30-veh57" route="route10" type="CarA"/>
  <vehicle depart="30" id="30-veh58" route="route11" type="CarA"/>
  <vehicle depart="30" id="30-veh59" route="route12" type="CarA"/>
  <vehicle color="1,0,0" depart="30" id="30-veh60" route="route01" type="CarB"/>
  <vehicle depart="30" id="30-veh61" route="route02" type="CarB"/>
  <vehicle depart="30" id="30-veh62" route="route03" type="CarB"/>
  <vehicle depart="30" id="30-veh63" route="route04" type="CarB"/>
  <vehicle depart="30" id="30-veh64" route="route05" type="CarB"/>
  <vehicle depart="30" id="30-veh65" route="route06" type="CarB"/>
  <vehicle depart="30" id="30-veh66" route="route07" type="CarB"/>
  <vehicle depart="30" id="30-veh67" route="route08" type="CarB"/>
  <vehicle depart="30" id="30-veh68" route="route09" type="CarB"/>
  <vehicle depart="30" id="30-veh69" route="route10" type="CarB"/>
  <vehicle depart="30" id="30-veh70" route="route11" type="CarB"/>
  <vehicle depart="30" id="30-veh71" route="route12" type="CarB"/>
  <vehicle color="1,0,0" depart="30" id="30-veh72" route="route01" type="CarC"/>
  <vehicle depart="30" id="30-veh73" route="route02" type="CarC"/>
  <vehicle depart="30" id="30-veh74" route="route03" type="CarC"/>
  <vehicle depart="30" id="30-veh75" route="route04" type="CarC"/>
  <vehicle depart="30" id="30-veh76" route="route05" type="CarC"/>
  <vehicle depart="30" id="30-veh77" route="route06" type="CarC"/>
  <vehicle depart="30" id="30-veh78" route="route07" type="CarC"/>
  <vehicle depart="30" id="30-veh79" route="route08" type="CarC"/>
  <vehicle depart="30" id="30-veh80" route="route09" type="CarC"/>
  <vehicle depart="30" id="30-veh81" route="route10" type="CarC"/>
  <vehicle depart="30" id="30-veh82" route="route11" type="CarC"/>
  <vehicle depart="30" id="30-veh83" route="route12" type="CarC"/>
  <vehicle color="1,0,0" depart="30" id="30-veh84" route="route01" type="CarD"/>
  <vehicle depart="30" id="30-veh85" route="route02" type="CarD"/>
  <vehicle depart="30" id="30-veh86" route="route03" type="CarD"/>
  <vehicle depart="30" id="30-veh87" route="route04" type="CarD"/>
  <vehicle depart="30" id="30-veh88" route="route05" type="CarD"/>
  <vehicle depart="30" id="30-veh89" route="route06" type="CarD"/>
  <vehicle depart="30" id="30-veh90" route="route07" type="CarD"/>
  <vehicle depart="30" id="30-veh91" route="route08" type="CarD"/>
  <vehicle depart="30" id="30-veh92" route="route09" type="CarD"/>
  <vehicle depart="30" id="30-veh93" route="route10" type="CarD"/>
  <vehicle depart="30" id="30-veh94" route="route11" type="CarD"/>
  <vehicle depart="30" id="30-veh95" route="route12" type="CarD"/>
  <vehicle color="1,0,0" depart="60" id="60-veh0" route="route01" type="CarA"/>
  <vehicle depart="60" id="60-veh1" route="route02" type="CarA"/>
  <vehicle depart="60" id="60-veh2" route="route03" type="CarA"/>
  <vehicle depart="60" id="60-veh3" route="route04" type="CarA"/>
  <vehicle depart="60" id="60-veh4" route="route05" type="CarA"/>
  <vehicle depart="60" id="60-veh5" route="route06" type="CarA"/>
  <vehicle depart="60" id="60-veh6" route="route07" type="CarA"/>
  <vehicle depart="60" id="60-veh7" route="route08" type="CarA"/>
  <vehicle depart="60" id="60-veh8" route="route09" type="CarA"/>
  <vehicle depart="60" id="60-veh9" route="route10" type="CarA"/>
  <vehicle depart="60" id="60-veh10" route="route11" type="CarA"/>
  <vehicle depart="60" id="60-veh11" route="route12" type="CarA"/>
  <vehicle color="1,0,0" depart="60" id="60-veh12" route="route01" type="CarB"/>
  <vehicle depart="60" id="60-veh13" route="route02" type="CarB"/>
  <vehicle depart="60" id="60-veh14" route="route03" type="CarB"/>
  <vehicle depart="60" id="60-veh15" route="route04" type="CarB"/>
  <vehicle depart="60" id="60-veh16" route="route05" type="CarB"/>
  <vehicle depart="60" id="60-veh17" route="route06" type="CarB"/>
  <vehicle depart="60" id="60-veh18" route="route07" type="CarB"/>
  <vehicle depart="60" id="60-veh19" route="route08" type="CarB"/>
  <vehicle depart="60" id="60-veh20" route="route09" type="CarB"/>
  <vehicle depart="60" id="60-veh21" route="route10" type="CarB"/>
  <vehicle depart="60" id="60-veh22" route="route11" type="CarB"/>
  <vehicle depart="60" id="60-veh23" route="route12" type="CarB"/>
  <vehicle color="1,0,0" depart="60" id="60-veh24" route="route01" type="CarC"/>
  <vehicle depart="60" id="60-veh25" route="route02" type="CarC"/>
  <vehicle depart="60" id="60-veh26" route="route03" type="CarC"/>
  <vehicle depart="60" id="60-veh27" route="route04" type="CarC"/>
  <vehicle depart="60" id="60-veh28" route="route05" type="CarC"/>
  <vehicle depart="60" id="60-veh29" route="route06" type="CarC"/>
  <vehicle depart="60" id="60-veh30" route="route07" type="CarC"/>
  <vehicle depart="60" id="60-veh31" route="route08" type="CarC"/>
  <vehicle depart="60" id="60-veh32" route="route09" type="CarC"/>
  <vehicle depart="60" id="60-veh33" route="route10" type="CarC"/>
  <vehicle depart="60" id="60-veh34" route="route11" type="CarC"/>
  <vehicle depart="60" id="60-veh35" route="route12" type="CarC"/>
  <vehicle color="1,0,0" depart="60" id="60-veh36" route="route01" type="CarD"/>
  <vehicle depart="60" id="60-veh37" route="route02" type="CarD"/>
  <vehicle depart="60" id="60-veh38" route="route03" type="CarD"/>
  <vehicle depart="60" id="60-veh39" route="route04" type="CarD"/>
  <vehicle depart="60" id="60-veh40" route="route05" type="CarD"/>
  <vehicle depart="60" id="60-veh41" route="route06" type="CarD"/>
  <vehicle depart="60" id="60-veh42" route="route07" type="CarD"/>
  <vehicle depart="60" id="60-veh43" route="route08" type="CarD"/>
  <vehicle depart="60" id="60-veh44" route="route09" type="CarD"/>
  <vehicle depart="60" id="60-veh45" route="route10" type="CarD"/>
  <vehicle depart="60" id="60-veh46" route="route11" type="CarD"/>
  <vehicle depart="60" id="60-veh47" route="route12" type="CarD"/>
  <vehicle color="1,0,0" depart="60" id="60-veh48" route="route01" type="CarA"/>
  <vehicle depart="60" id="60-veh49" route="route02" type="CarA"/>
  <vehicle depart="60" id="60-veh50" route="route03" type="CarA"/>
  <vehicle depart="60" id="60-veh51" route="route04" type="CarA"/>
  <vehicle depart="60" id="60-veh52" route="route05" type="CarA"/>
  <vehicle depart="60" id="60-veh53" route="route06" type="CarA"/>
  <vehicle depart="60" id="60-veh54" route="route07" type="CarA"/>
  <vehicle depart="60" id="60-veh55" route="route08" type="CarA"/>
  <vehicle depart="60" id="60-veh56" route="route09" type="CarA"/>
  <vehicle depart="60" id="60-veh57" route="route10" type="CarA"/>
  <vehicle depart="60" id="60-veh58" route="route11" type="CarA"/>
  <vehicle depart="60" id="60-veh59" route="route12" type="CarA"/>
  <vehicle color="1,0,0" depart="60" id="60-veh60" route="route01" type="CarB"/>
  <vehicle depart="60" id="60-veh61" route="route02" type="CarB"/>
  <vehicle depart="60" id="60-veh62" route="route03" type="CarB"/>
  <vehicle depart="60" id="60-veh63" route="route04" type="CarB"/>
  <vehicle depart="60" id="60-veh64" route="route05" type="CarB"/>
  <vehicle depart="60" id="60-veh65" route="route06" type="CarB"/>
  <vehicle depart="60" id="60-veh66" route="route07" type="CarB"/>
  <vehicle depart="60" id="60-veh67" route="route08" type="CarB"/>
  <vehicle depart="60" id="60-veh68" route="route09" type="CarB"/>
  <vehicle depart="60" id="60-veh69" route="route10" type="CarB"/>
  <vehicle depart="60" id="60-veh70" route="route11" type="CarB"/>
  <vehicle depart="60" id="60-veh71" route="route12" type="CarB"/>
  <vehicle color="1,0,0" depart="60" id="60-veh72" route="route01" type="CarC"/>
  <vehicle depart="60" id="60-veh73" route="route02" type="CarC"/>
  <vehicle depart="60" id="60-veh74" route="route03" type="CarC"/>
  <vehicle depart="60" id="60-veh75" route="route04" type="CarC"/>
  <vehicle depart="60" id="60-veh76" route="route05" type="CarC"/>
  <vehicle depart="60" id="60-veh77" route="route06" type="CarC"/>
  <vehicle depart="60" id="60-veh78" route="route07" type="CarC"/>
  <vehicle depart="60" id="60-veh79" route="route08" type="CarC"/>
  <vehicle depart="60" id="60-veh80" route="route09" type="CarC"/>
  <vehicle depart="60" id="60-veh81" route="route10" type="CarC"/>
  <vehicle depart="60" id="60-veh82" route="route11" type="CarC"/>
  <vehicle depart="60" id="60-veh83" route="route12" type="CarC"/>
  <vehicle color="1,0,0" depart="60" id="60-veh84" route="route01" type="CarD"/>
  <vehicle depart="60" id="60-veh85" route="route02" type="CarD"/>
  <vehicle depart="60" id="60-veh86" route="route03" type="CarD"/>
  <vehicle depart="60" id="60-veh87" route="route04" type="CarD"/>
  <vehicle depart="60" id="60-veh88" route="route05" type="CarD"/>
  <vehicle depart="60" id="60-veh89" route="route06" type="CarD"/>
  <vehicle depart="60" id="60-veh90" route="route07" type="CarD"/>
  <vehicle depart="60" id="60-veh91" route="route08" type="CarD"/>
  <vehicle depart="60" id="60-veh92" route="route09" type="CarD"/>
  <vehicle depart="60" id="60-veh93" route="route10" type="CarD"/>
  <vehicle depart="60" id="60-veh94" route="route11" type="CarD"/>
  <vehicle depart="60" id="60-veh95" route="route12" type="CarD"/>
  <vehicle color="1,0,0" depart="90" id="90-veh0" route="route01" type="CarA"/>
  <vehicle depart="90" id="90-veh1" route="route02" type="CarA"/>
  <vehicle depart="90" id="90-veh2" route="route03" type="CarA"/>
  <vehicle depart="90" id="90-veh3" route="route04" type="CarA"/>
  <vehicle depart="90" id="90-veh4" route="route05" type="CarA"/>
  <vehicle depart="90" id="90-veh5" route="route06" type="CarA"/>
  <vehicle depart="90" id="90-veh6" route="route07" type="CarA"/>
  <vehicle depart="90" id="90-veh7" route="route08" type="CarA"/>
  <vehicle depart="90" id="90-veh8" route="route09" type="CarA"/>
  <vehicle depart="90" id="90-veh9" route="route10" type="CarA"/>
  <vehicle depart="90" id="90-veh10" route="route11" type="CarA"/>
  <vehicle depart="90" id="90-veh11" route="route12" type="CarA"/>
  <vehicle color="1,0,0" depart="90" id="90-veh12" route="route01" type="CarB"/>
  <vehicle depart="90" id="90-veh13" route="route02" type="CarB"/>
  <vehicle depart="90" id="90-veh14" route="route03" type="CarB"/>
  <vehicle depart="90" id="90-veh15" route="route04" type="CarB"/>
  <vehicle depart="90" id="90-veh16" route="route05" type="CarB"/>
  <vehicle depart="90" id="90-veh17" route="route06" type="CarB"/>
  <vehicle depart="90" id="90-veh18" route="route07" type="CarB"/>
  <vehicle depart="90" id="90-veh19" route="route08" type="CarB"/>
  <vehicle depart="90" id="90-veh20" route="route09" type="CarB"/>
  <vehicle depart="90" id="90-veh21" route="route10" type="CarB"/>
  <vehicle depart="90" id="90-veh22" route="route11" type="CarB"/>
  <vehicle depart="90" id="90-veh23" route="route12" type="CarB"/>
  <vehicle color="1,0,0" depart="90" id="90-veh24" route="route01" type="CarC"/>
  <vehicle depart="90" id="90-veh25" route="route02" type="CarC"/>
  <vehicle depart="90" id="90-veh26" route="route03" type="CarC"/>
  <vehicle depart="90" id="90-veh27" route="route04" type="CarC"/>
  <vehicle depart="90" id="90-veh28" route="route05" type="CarC"/>
  <vehicle depart="90" id="90-veh29" route="route06" type="CarC"/>
  <vehicle depart="90" id="90-veh30" route="route07" type="CarC"/>
  <vehicle depart="90" id="90-veh31" route="route08" type="CarC"/>
  <vehicle depart="90" id="90-veh32" route="route09" type="CarC"/>
  <vehicle depart="90" id="90-veh33" route="route10" type="CarC"/>
  <vehicle depart="90" id="90-veh34" route="route11" type="CarC"/>
  <vehicle depart="90" id="90-veh35" route="route12" type="CarC"/>
  <vehicle color="1,0,0" depart="90" id="90-veh36" route="route01" type="CarD"/>
  <vehicle depart="90" id="90-veh37" route="route02" type="CarD"/>
  <vehicle depart="90" id="90-veh38" route="route03" type="CarD"/>
  <vehicle depart="90" id="90-veh39" route="route04" type="CarD"/>
  <vehicle depart="90" id="90-veh40" route="route05" type="CarD"/>
  <vehicle depart="90" id="90-veh41" route="route06" type="CarD"/>
  <vehicle depart="90" id="90-veh42" route="route07" type="CarD"/>
  <vehicle depart="90" id="90-veh43" route="route08" type="CarD"/>
  <vehicle depart="90" id="90-veh44" route="route09" type="CarD"/>
  <vehicle depart="90" id="90-veh45" route="route10" type="CarD"/>
  <vehicle depart="90" id="90-veh46" route="route11" type="CarD"/>
  <vehicle depart="90" id="90-veh47" route="route12" type="CarD"/>
  <vehicle color="1,0,0" depart="90" id="90-veh48" route="route01" type="CarA"/>
  <vehicle depart="90" id="90-veh49" route="route02" type="CarA"/>
  <vehicle depart="90" id="90-veh50" route="route03" type="CarA"/>
  <vehicle depart="90" id="90-veh51" route="route04" type="CarA"/>
  <vehicle depart="90" id="90-veh52" route="route05" type="CarA"/>
  <vehicle depart="90" id="90-veh53" route="route06" type="CarA"/>
  <vehicle depart="90" id="90-veh54" route="route07" type="CarA"/>
  <vehicle depart="90" id="90-veh55" route="route08" type="CarA"/>
  <vehicle depart="90" id="90-veh56" route="route09" type="CarA"/>
  <vehicle depart="90" id="90-veh57" route="route10" type="CarA"/>
  <vehicle depart="90" id="90-veh58" route="route11" type="CarA"/>
  <vehicle depart="90" id="90-veh59" route="route12" type="CarA"/>
  <vehicle color="1,0,0" depart="90" id="90-veh60" route="route01" type="CarB"/>
  <vehicle depart="90" id="90-veh61" route="route02" type="CarB"/>
  <vehicle depart="90" id="90-veh62" route="route03" type="CarB"/>
  <vehicle depart="90" id="90-veh63" route="route04" type="CarB"/>
  <vehicle depart="90" id="90-veh64" route="route05" type="CarB"/>
  <vehicle depart="90" id="90-veh65" route="route06" type="CarB"/>
  <vehicle depart="90" id="90-veh66" route="route07" type="CarB"/>
  <vehicle depart="90" id="90-veh67" route="route08" type="CarB"/>
  <vehicle depart="90" id="90-veh68" route="route09" type="CarB"/>
  <vehicle depart="90" id="90-veh69" route="route10" type="CarB"/>
  <vehicle depart="90" id="90-veh70" route="route11" type="CarB"/>
  <vehicle depart="90" id="90-veh71" route="route12" type="CarB"/>
  <vehicle color="1,0,0" depart="90" id="90-veh72" route="route01" type="CarC"/>
  <vehicle depart="90" id="90-veh73" route="route02" type="CarC"/>
  <vehicle depart="90" id="90-veh74" route="route03" type="CarC"/>
  <vehicle depart="90" id="90-veh75" route="route04" type="CarC"/>
  <vehicle depart="90" id="90-veh76" route="route05" type="CarC"/>
  <vehicle depart="90" id="90-veh77" route="route06" type="CarC"/>
  <vehicle depart="90" id="90-veh78" route="route07" type="CarC"/>
  <vehicle depart="90" id="90-veh79" route="route08" type="CarC"/>
  <vehicle depart="90" id="90-veh80" route="route09" type="CarC"/>
  <vehicle depart="90" id="90-veh81" route="route10" type="CarC"/>
  <vehicle depart="90" id="90-veh82" route="route11" type="CarC"/>
  <vehicle depart="90" id="90-veh83" route="route12" type="CarC"/>
  <vehicle color="1,0,0" depart="90" id="90-veh84" route="route01" type="CarD"/>
  <vehicle depart="90" id="90-veh85" route="route02" type="CarD"/>
  <vehicle depart="90" id="90-veh86" route="route03" type="CarD"/>
  <vehicle depart="90" id="90-veh87" route="route04" type="CarD"/>
  <vehicle depart="90" id="90-veh88" route="route05" type="CarD"/>
  <vehicle depart="90" id="90-veh89" route="route06" type="CarD"/>
  <vehicle depart="90" id="90-veh90" route="route07" type="CarD"/>
  <vehicle depart="90" id="90-veh91" route="route08" type="CarD"/>
  <vehicle depart="90" id="90-veh92" route="route09" type="CarD"/>
  <vehicle depart="90" id="90-veh93" route="route10" type="CarD"/>
  <vehicle depart="90" id="90-veh94" route="route11" type="CarD"/>
  <vehicle depart="90" id="90-veh95" route="route12" type="CarD"/>
  <vehicle color="1,0,0" depart="120" id="120-veh0" route="route01" type="CarA"/>
  <vehicle depart="120" id="120-veh1" route="route02" type="CarA"/>
  <vehicle depart="120" id="120-veh2" route="route03" type="CarA"/>
  <vehicle depart="120" id="120-veh3" route="route04" type="CarA"/>
  <vehicle depart="120" id="120-veh4" route="route05" type="CarA"/>
  <vehicle depart="120" id="120-veh5" route="route06" type="CarA"/>